%mem=20GB
%nprocshared=8
%chk=example-IRC.chk
#p irc=(calcfc,maxpoints=100,recalc=1,stepsize=5) b3lyp/6-31+g(d,p)

IRC sn2

-1 1
 C                  0.38704102   -0.13057322    0.00000420
 Cl                -1.80806698   -0.19723622   -0.00000080
 H                  0.49378902   -0.68847322   -0.91350880
 H                  0.49378702   -0.68846722    0.91352120
 F                  2.50558102   -0.60346022   -0.00000180
 C                  0.64889902    1.34717078    0.00000020
 H                  0.22168602    1.82486978    0.88730820
 H                  1.73693902    1.46072878    0.00001720
 H                  0.22171902    1.82486078   -0.88732880

