%mem=20GB
%nprocshared=8
%chk=example-TSopt.chk
#p opt=(calcfc,ts,noeigentest) freq=noraman b3lyp/6-31+g(d,p)

opt=(ts,calcfc,noeigenest) freq=noraman ts_sn2

-1 1
 C                  0.35921200   -0.18287400    0.00000400
 Cl                -1.83589600   -0.24953700   -0.00000100
 H                  0.46596000   -0.74077400   -0.91350900
 H                  0.46595800   -0.74076800    0.91352100
 F                  2.47775200   -0.65576100   -0.00000200
 C                  0.62107000    1.29487000    0.00000000
 H                  0.19385700    1.77256900    0.88730800
 H                  1.70911000    1.40842800    0.00001700
 H                  0.19389000    1.77256000   -0.88732900

