  15
  -302.96986501967871     
 C     1.21671379    -0.77913698     0.34348640
 C     1.21551775     0.77743888     0.34448537
 C    -0.15492363     1.09023891    -0.29012940
 C    -0.14738756    -1.09327059    -0.29694913
 C    -0.29308504    -0.00021568    -1.34516880
 N    -1.14096606     0.64598789     0.72426501
 N    -1.15083660    -0.63792509     0.73209919
 H    -1.26352778    -0.00182958    -1.83710019
 H     0.50598601     0.00428976    -2.08352148
 H    -0.32985428    -2.12469070    -0.57505892
 H    -0.32822429     2.12162761    -0.57525532
 H     1.29236098     1.19944313     1.34393363
 H     1.29068919    -1.20248971     1.34255856
 H     2.03088142    -1.18170947    -0.25454268
 H     2.02465211     1.18196063    -0.25744923
