%nprocshared=8
%mem=16GB
%chk=bf3-tropone-camb3lyp-augccpvdz.chk
# td=(50-50,nstates=5) cam-b3lyp/aug-cc-pvdz empiricaldispersion=gd3bj formcheck

bf3-tropone-camb3lyp-augccpvdz

0 1
 C                 -3.39432700    0.25981400   -0.00000400
 C                 -3.00953500   -1.05293800    0.00002400
 C                 -1.69227100   -1.57409100    0.00005100
 C                 -2.55880700    1.40272900    0.00002500
 C                 -0.47869600   -0.94242700   -0.00004900
 C                 -1.19549700    1.49443300   -0.00006000
 H                 -4.46465000    0.45669700   -0.00003400
 H                 -3.80676800   -1.79389800    0.00000900
 H                 -1.63517800   -2.66180900    0.00009700
 H                 -3.08410900    2.35682300    0.00012200
 H                  0.40402600   -1.57364000   -0.00024400
 H                 -0.76119600    2.49244700   -0.00002900
 C                 -0.19745700    0.46485900   -0.00017400
 O                  0.99748200    0.89668200   -0.00033700
 B                  2.27049800   -0.02255700    0.00000400
 F                  2.18634800   -0.79879700   -1.14830500
 F                  2.18628100   -0.79758500    1.14914700
 F                  3.31349000    0.85732000   -0.00041100

