%mem=20GB
%nprocshared=8
%rwf=/scratch/
%nosave
#p opt=modredundant wb97xd/6-31+g(d,p) scrf=(smd,solvent=dichloromethane)

1u_class_min_conf-9

0 1
 C                  1.29905500   -0.26664000   -0.57945400
 C                 -1.04219100   -1.19024000   -0.37469400
 C                  0.41219600   -1.35507600    0.01408600
 H                 -1.28423200   -1.48598600   -1.39354300
 H                  0.76201300   -2.24858200   -0.52582400
 C                 -2.00528500   -0.70342100    0.41239000
 H                 -1.75791700   -0.37029000    1.41854100
 C                 -3.42029600   -0.52178000    0.03338000
 C                 -4.20835100    0.36207700    0.78406900
 C                 -4.01636200   -1.19455100   -1.04430100
 C                 -5.54354800    0.58792000    0.45695100
 H                 -3.76299100    0.88507300    1.62652500
 C                 -5.35067400   -0.97090200   -1.37076800
 H                 -3.44144900   -1.90998200   -1.62505400
 C                 -6.11975900   -0.07660500   -0.62426600
 H                 -6.13316500    1.28242200    1.04808800
 H                 -5.79537900   -1.50328900   -2.20653900
 H                 -7.16128300    0.09377800   -0.87989600
 C                  0.86299200    0.33405500   -1.87865200
 H                  1.50818700    1.16019900   -2.17808400
 H                  0.97030900   -0.46159900   -2.62640900
 H                 -0.17905200    0.65110100   -1.85985500
 F                  1.00200000    0.99307200    0.54313400
 B                  0.44951100    2.46124900    0.45325400
 F                  0.48277000    2.86678800    1.76454800
 F                 -0.81594600    2.37006300   -0.06615200
 F                  1.32802900    3.14054900   -0.35872400
 C                  2.82439185   -0.42517778   -0.43869443
 C                  3.52203261    0.86947209   -0.73522291
 H                  3.15845172   -1.22478661   -1.14370881
 H                  3.04522049   -0.76383351    0.60272261
 H                  4.62848632    0.75492493   -0.63317582
 H                  3.30090084    1.20784428   -1.77670392
 H                  3.18758613    1.66894828   -0.03019962
 C                  0.65415231   -1.60152253    1.51485955
 O                  0.33769174   -0.92174588    2.49021499
 O                  1.32309904   -2.75949640    1.74511327
 C                  1.52796859   -2.95217531    3.14718435
 H                  2.06225302   -3.86528555    3.30740246
 H                  2.09410968   -2.13391771    3.54067994
 H                  0.58083697   -3.00149493    3.64257234

B 1 23 F

