%mem=8GB
%nprocshared=16
%chk=dimer-1Dscan-more-angle.chk
# opt=modredundant 6-31g(d,p) pbe1pbe

Dimer

0 1
 C                 -3.61179200   -1.94538500   -0.74849900
 C                 -2.42738000   -1.53828100   -1.36434300
 C                 -1.25839600   -1.36903400   -0.63876400
 C                 -1.23662100   -1.73699900    0.73391300
 C                 -2.44855700   -2.12177400    1.35040000
 C                 -3.62073400   -2.21399800    0.62165100
 C                  0.00000300   -0.79755600   -1.27315000
 C                 -0.00000700   -1.80289600    1.42319100
 C                  1.23661400   -1.73699100    0.73392600
 C                  1.25839900   -1.36902500   -0.63875000
 C                  2.42738900   -1.53827000   -1.36432000
 H                  2.42825700   -1.31236200   -2.42825400
 C                  3.61179800   -1.94537000   -0.74846700
 C                  3.62073000   -2.21398200    0.62168400
 C                  2.44854600   -2.12176200    1.35042300
 H                  0.00001100   -1.09973100   -2.32796900
 H                 -4.52097100   -2.04663400   -1.33323500
 H                 -2.42823900   -1.31237400   -2.42827700
 H                 -2.43743700   -2.38315700    2.40561300
 H                 -4.54140300   -2.51764100    1.11150800
 H                 -0.00001100   -2.08268000    2.47374100
 H                  4.52098200   -2.04661600   -1.33319600
 H                  4.54139500   -2.51762400    1.11154700
 H                  2.43741900   -2.38314500    2.40563700
 C                  3.61179500    1.94527200   -0.74874200
 C                  2.42737800    1.53810300   -1.36453700
 C                  1.25839500    1.36895000   -0.63893600
 C                  1.23662100    1.73708400    0.73369600
 C                  2.44856000    2.12192400    1.35013700
 C                  3.62073900    2.21404900    0.62137600
 C                 -0.00000700    0.79739800   -1.27325000
 C                  0.00000700    1.80308200    1.42296200
 C                 -1.23661400    1.73709800    0.73370500
 C                 -1.25840200    1.36895000   -0.63892300
 C                 -2.42739300    1.53809800   -1.36451300
 H                 -2.42826300    1.31204700   -2.42841600
 C                 -3.61180000    1.94528400   -0.74871300
 C                 -3.62072800    2.21408300    0.62140100
 C                 -2.44854400    2.12195700    1.35015100
 H                 -0.00001500    1.09944100   -2.32810700
 H                  4.52097400    2.04644300   -1.33349100
 H                  2.42823600    1.31206700   -2.42844300
 H                  2.43744300    2.38343600    2.40531800
 H                  4.54141000    2.51774500    1.11119600
 H                  0.00001200    2.08300000    2.47347700
 H                 -4.52098500    2.04645300   -1.33345400
 H                 -4.54139200    2.51779300    1.11122500
 H                 -2.43741500    2.38348100    2.40532900

D 8 7 31 32 S 13 15.0

