%nprocshared=8
%mem=100GB
%chk=ci-homoE
#p cas(8,8,NRoot=5)/6-31g(d,p) scf=(maxcycle=500) formcheck Guess=read StateAverage

ci-homoE

0 1
 C  	  -1.472032837995      2.391249137341     -0.450725547062
 C  	  -0.264540278867      2.101847275216     -1.207406112733
 H  	   0.054658411126      2.855440144557     -1.915895003763
 C  	   0.534928103921      1.015005033318     -1.020076615155
 C  	   1.924218342753      0.976564312050     -1.481232663845
 H  	   2.235662252376      1.740375736947     -2.180572503582
 C  	   2.836395229993      0.118937825568     -0.969917623548
 C   	   2.445082365341     -0.947888927192      0.041055999901
 C   	   2.470357214863     -0.466287268803      1.483367306658
 C  	   0.992362957029     -1.320563968047     -0.260547832318
 O 	   0.629423660990     -2.405867092625     -0.562154294549
 C   	   0.059055265512     -0.113936873018     -0.117420288095
 C  	   0.186024731694      0.458105193680      1.289195171535
 C  	   1.395846385107      0.130880329474      2.047837878819
 H  	   1.450992279607      0.485358319430      3.068075766032
 C   	  -0.704287530596      1.396904750188      1.716081833874
 C   	  -1.671486167355      2.073880786784      0.867124673050
 H  	  -2.557659443333      2.467694712452      1.347875059873
 H  	  -0.639136444807      1.733794909845      2.742918365587
 C  	  -1.330717598847     -0.642055968608     -0.495828223596
 O   	  -1.767767602388     -0.603569642844     -1.593357882676
 O  	  -1.927925007127     -1.217564283873      0.523832579952
 C  	  -3.138613685712     -1.910209094766      0.246207181788
 H   	  -3.457408253624     -2.329266357452      1.194467877164
 H  	  -3.884865406080     -1.221328824363     -0.138831873820
 H  	  -2.956520100674     -2.696823100704     -0.479679744830
 H  	   3.376699954684     -0.612228924718      2.053841722798
 H  	   3.055618272119     -1.838765377097     -0.080174031005
 H   	   3.871995619588      0.176715614866     -1.273765521852
 H  	  -2.216153715042      3.011571981544     -0.933243396481 
 
0.2 0.2 0.2 0.2 0.2

